400
C200Si199W optimized with Band in AMS.
C         6.31263784747487       0.00050402411721       1.95378404825897
C         6.31021604050828      -0.00072170096124       7.17184010434989
Si        6.32128112372598       0.00251504372849       0.00708312177634
Si        6.31226452968303      -0.00099779955410       5.22664626375919
C         6.30990607658630      -1.82108010851887       4.56837606372705
C         6.30981359949309       1.82115040427036       9.78539293357193
Si        6.31289567535381      -1.82151784094328       2.61310298397513
Si        6.31130576735263       1.82102930516493       7.82992939974042
C        -6.31263784747487       0.00050402411713       1.95378404825897
C        -6.31021604050828      -0.00072170096131       7.17184010434989
Si       -6.32128112372598       0.00251504372842       0.00708312177634
Si       -6.31226452968302      -0.00099779955417       5.22664626375919
C        -6.30990607658629      -1.82108010851895       4.56837606372705
C        -6.30981359949309       1.82115040427029       9.78539293357193
Si       -6.31289567535381      -1.82151784094336       2.61310298397513
Si       -6.31130576735264       1.82102930516486       7.82992939974042
C        -4.73436557147352       2.73338723713231       1.95369373947656
C        -4.73376896494211       2.73304278619079       7.17318702676645
Si       -4.74273659184925       2.73822024799963       0.00577648594460
Si       -4.73529140085969       2.73392176497763       5.22847873749742
C        -4.73508555597055       0.91287458206491       4.57390616196826
C        -4.73206931395695       4.55388366817038       9.78539293357193
Si       -4.74308049119460       0.91422512287311       2.61972010757657
Si       -4.73271052298503       4.55523647299616       7.82992939974042
C        -3.15675542142704       5.46665272874577       1.95378404825897
C        -3.15448300888774       5.46516824492886       7.17184010434989
Si       -3.16281865362346       5.47313251574552       0.00708312177634
Si       -3.15526814507975       5.46708033789000       5.22664626375919
C        -3.15811535652261       3.64426708953077       4.57390616196826
C        -3.15320515338405       7.28729789411483       9.78895130302663
Si       -3.16328242678338       3.65051563613231       2.61972010757657
Si       -3.15544810554504       7.28600292508090       7.83192958636251
C        -1.57562944124801       8.19811165618360       1.95422561741066
C        -1.57863203684828       8.19637810680552       7.17176399464141
Si       -1.57523266659350       8.19834073413719       0.00658251537612
Si       -1.57848851620976       8.19646096848479       5.22549771061942
C        -1.57785140198925       6.37507901207698       4.56837606372705
C        -1.57748337956330      10.01856219206427       9.78650009036279
Si       -1.57896711397341       6.37788694676898       2.61310298397513
Si       -1.57660500333131      10.01805506131028       7.82970513557052
C         0.00000000000000      10.92718190232651       1.95422561741066
C        -0.00000000000000      10.93064900108269       7.17176399464141
Si       -0.00000000000001      10.92672374641933       0.00658251537612
Si        0.00000000000000      10.93048327772411       5.22549771061942
C         0.00000000000000       9.10780173823125       4.57304297445115
C        -0.00000000000001      12.74880942646404       9.78895130302663
Si        0.00000000000000       9.10780173823125       2.61645624547329
Si       -0.00000000000000      12.75139936453188       7.83192958636251
C        -4.73434287946080      -2.73337413589272       1.95392040944296
C        -4.73297594739005      -2.73258493729370       7.17049500188698
Si       -4.74038712624722      -2.73686378340191       0.00735145491499
Si       -4.73456570757903      -2.73350278576677       5.22487712403474
C        -4.73205467459703      -4.55399890355812       4.56837606372705
C        -4.73351240151809      -0.91262490200210       9.78812579231137
Si       -4.73392856138038      -4.55636910582570       2.61310298397513
Si       -4.73423828159676      -0.91193442796675       7.83198115284997
C        -3.16264140845909       0.00058357561356       1.95969570259642
C        -3.15633911172259      -0.00071447124431       7.17537418340412
Si       -3.20024259804280       0.01042526441016       0.01671769884818
Si       -3.16157856608964      -0.00226666030068       5.23236325574881
C        -3.15500043319111      -1.82154034939629       4.57055824445708
C        -3.15506310353757       1.82157653213766       9.78585842421554
Si       -3.16097244781871      -1.82498829364914       2.61746018168874
Si       -3.15649666088954       1.82240419686071       7.83096669522295
C        -1.58182609553594       2.73863601497937       1.95969570259642
C        -1.57755080561347       2.73382708933232       7.17537418340412
Si       -1.60914984284179       2.76627875597308       0.01671769884818
Si       -1.57882629764270       2.73914068444432       5.23236325574881
C        -1.58292580272744       0.91390263831189       4.58495146011949
C        -1.57639985149896       4.55565443984438       9.78812579231137
Si       -1.60474384728579       0.92649929221084       2.63793998558276
Si       -1.57736075959356       4.55593783341493       7.83198115284997
C         0.00000000000000       5.46674827178537       1.95392040944296
C        -0.00000000000000       5.46516987458734       7.17049500188698
Si       -0.00000000000000       5.47372756680375       0.00735145491499
Si       -0.00000000000000       5.46700557153348       5.22487712403474
C         0.00000000000000       3.64308069879255       4.57055824445708
C         0.00000000000000       7.28628083056517       9.78650009036279
Si       -0.00000000000000       3.64997658729825       2.61746018168874
Si       -0.00000000000000       7.28729509207316       7.82970513557052
C         1.57562944124801       8.19811165618362       1.95422561741066
C         1.57863203684828       8.19637810680553       7.17176399464141
Si        1.57523266659350       8.19834073413720       0.00658251537612
Si        1.57848851620976       8.19646096848481       5.22549771061942
C         1.57785140198925       6.37507901207699       4.56837606372705
C         1.57748337956329      10.01856219206428       9.78650009036279
Si        1.57896711397341       6.37788694676899       2.61310298397513
Si        1.57660500333131      10.01805506131029       7.82970513557052
C        -3.15588242604784      -5.46715675286299       1.95378404825897
C        -3.15573303162055      -5.46444654396764       7.17184010434989
Si       -3.15846247010252      -5.47564755947400       0.00708312177634
Si       -3.15699638460328      -5.46608253833590       5.22664626375919
C        -3.15327123996717      -7.28725973900830       4.57328796456226
C        -3.15711255001912      -3.64302953784233       9.78812579231137
Si       -3.15461823698779      -7.28648204991585       2.61703629424409
Si       -3.15687752200319      -3.64400340544825       7.83198115284997
C        -1.58081531292315      -2.73921959059297       1.95969570259642
C        -1.57878830610912      -2.73311261808804       7.17537418340412
Si       -1.59109275520101      -2.77670402038328       0.01671769884818
Si       -1.58275226844693      -2.73687402414369       5.23236325574881
C        -1.57697019944793      -4.55714167159575       4.57390616196826
C        -1.57862534878676      -0.91141977007162       9.79096657281889
Si       -1.57979806441121      -4.56474075900548       2.61972010757657
Si       -1.57869030103975      -0.91145727027236       7.83503516175743
C        -0.00000000000000       0.00000000000000       2.00222335079016
C        -0.00000000000000       0.00000000000000       7.17782824014710
W        -0.00000000000000      -0.00000000000000      -0.02246763763404
Si       -0.00000000000000       0.00000000000001       5.23440658457396
C        -0.00000000000000      -1.82780527662379       4.58495146011949
C         0.00000000000000       1.82283954014322       9.79096657281889
Si       -0.00000000000000      -1.85299858442170       2.63793998558276
Si        0.00000000000000       1.82291454054470       7.83503516175743
C         1.58182609553594       2.73863601497939       1.95969570259642
C         1.57755080561347       2.73382708933233       7.17537418340412
Si        1.60914984284179       2.76627875597310       0.01671769884818
Si        1.57882629764270       2.73914068444434       5.23236325574881
C         1.58292580272744       0.91390263831190       4.58495146011949
C         1.57639985149897       4.55565443984441       9.78812579231137
Si        1.60474384728579       0.92649929221086       2.63793998558276
Si        1.57736075959356       4.55593783341495       7.83198115284997
C         3.15675542142703       5.46665272874581       1.95378404825897
C         3.15448300888774       5.46516824492890       7.17184010434989
Si        3.16281865362346       5.47313251574554       0.00708312177634
Si        3.15526814507975       5.46708033789004       5.22664626375919
C         3.15811535652261       3.64426708953081       4.57390616196826
C         3.15320515338405       7.28729789411486       9.78895130302663
Si        3.16328242678338       3.65051563613235       2.61972010757657
Si        3.15544810554502       7.28600292508093       7.83192958636251
C        -1.57848084846323      -8.19646539546034       1.95473313477857
C        -1.57587418420003      -8.19797035377438       7.17328449901272
Si       -1.57716738651890      -8.19722372306746       0.00681008626174
Si       -1.57594421316858      -8.19792992253055       5.22727767959874
C        -1.57726086698823     -10.01843372436918       4.57085683451921
C        -1.57774428553616      -6.37503407244073       9.78539293357193
Si       -1.57474276801183     -10.01697989924731       2.61466167120172
Si       -1.57859524436760      -6.37626577816108       7.82992939974042
C        -0.00000000000000      -5.46677447426468       1.95369373947656
C         0.00000000000000      -5.46608557238166       7.17318702676645
Si       -0.00000000000000      -5.47644049599932       0.00577648594460
Si        0.00000000000000      -5.46784352995534       5.22847873749742
C         0.00000000000000      -7.28653776595539       4.57085683451921
C        -0.00000000000000      -3.64315306427534       9.78585842421554
Si        0.00000000000000      -7.28944541619914       2.61466167120172
Si       -0.00000000000000      -3.64480839372147       7.83096669522295
C         1.58081531292315      -2.73921959059295       1.95969570259642
C         1.57878830610912      -2.73311261808803       7.17537418340412
Si        1.59109275520101      -2.77670402038327       0.01671769884818
Si        1.58275226844693      -2.73687402414367       5.23236325574881
C         1.57697019944793      -4.55714167159572       4.57390616196826
C         1.57862534878676      -0.91141977007160       9.79096657281889
Si        1.57979806441121      -4.56474075900546       2.61972010757657
Si        1.57869030103974      -0.91145727027234       7.83503516175743
C         3.16264140845909       0.00058357561360       1.95969570259642
C         3.15633911172259      -0.00071447124427       7.17537418340412
Si        3.20024259804280       0.01042526441020       0.01671769884818
Si        3.16157856608963      -0.00226666030063       5.23236325574881
C         3.15500043319111      -1.82154034939626       4.57055824445708
C         3.15506310353756       1.82157653213769       9.78585842421554
Si        3.16097244781871      -1.82498829364911       2.61746018168874
Si        3.15649666088954       1.82240419686075       7.83096669522295
C         4.73436557147351       2.73338723713237       1.95369373947656
C         4.73376896494211       2.73304278619086       7.17318702676645
Si        4.74273659184924       2.73822024799969       0.00577648594460
Si        4.73529140085969       2.73392176497770       5.22847873749742
C         4.73508555597055       0.91287458206496       4.57390616196826
C         4.73206931395694       4.55388366817044       9.78539293357193
Si        4.74308049119460       0.91422512287317       2.61972010757657
Si        4.73271052298503       4.55523647299621       7.82992939974042
C         0.00000000000000     -10.93047442377308       1.95473313477857
C         0.00000000000001     -10.92746450714498       7.17328449901272
Si       -0.00000000000000     -10.92895776855883       0.00681008626174
Si        0.00000000000000     -10.92754536963267       5.22727767959874
C         0.00000000000001     -12.74888573667717       4.57328796456226
C        -0.00000000000000      -9.10780173823125       9.79039319139507
Si        0.00000000000001     -12.75044111486205       2.61703629424409
Si       -0.00000000000000      -9.10780173823125       7.83395890193507
C         1.57848084846323      -8.19646539546032       1.95473313477857
C         1.57587418420004      -8.19797035377437       7.17328449901272
Si        1.57716738651890      -8.19722372306744       0.00681008626174
Si        1.57594421316858      -8.19792992253052       5.22727767959874
C         1.57726086698824     -10.01843372436915       4.57085683451921
C         1.57774428553616      -6.37503407244072       9.78539293357193
Si        1.57474276801184     -10.01697989924729       2.61466167120172
Si        1.57859524436760      -6.37626577816107       7.82992939974042
C         3.15588242604784      -5.46715675286295       1.95378404825897
C         3.15573303162055      -5.46444654396759       7.17184010434989
Si        3.15846247010252      -5.47564755947396       0.00708312177634
Si        3.15699638460328      -5.46608253833586       5.22664626375919
C         3.15327123996717      -7.28725973900826       4.57328796456226
C         3.15711255001912      -3.64302953784230       9.78812579231137
Si        3.15461823698780      -7.28648204991580       2.61703629424409
Si        3.15687752200318      -3.64400340544821       7.83198115284997
C         4.73434287946080      -2.73337413589265       1.95392040944296
C         4.73297594739004      -2.73258493729365       7.17049500188698
Si        4.74038712624722      -2.73686378340184       0.00735145491499
Si        4.73456570757904      -2.73350278576671       5.22487712403474
C         4.73205467459704      -4.55399890355806       4.56837606372705
C         4.73351240151808      -0.91262490200204       9.78812579231137
Si        4.73392856138039      -4.55636910582565       2.61310298397513
Si        4.73423828159675      -0.91193442796670       7.83198115284997
C         6.31036182975852       0.00032829246833      -8.48206806281686
C         6.31201921110150       0.00055701481551      -3.26691737855588
Si        6.31064983594577       0.00006234850715     -10.42966426395694
Si        6.31210117739282       0.00006448243258      -5.21631858487319
C         6.30996768538278      -1.82097926007170      -5.86765193984444
C         6.31229977060106       1.82128780145607      -0.65074679838675
Si        6.31120563911894      -1.82115806362953      -7.82598111127379
Si        6.31279232392128       1.82170369014911      -2.60939432950012
C        -6.31036182975853       0.00032829246824      -8.48206806281686
C        -6.31201921110150       0.00055701481543      -3.26691737855588
Si       -6.31064983594576       0.00006234850708     -10.42966426395694
Si       -6.31210117739282       0.00006448243250      -5.21631858487319
C        -6.30996768538278      -1.82097926007178      -5.86765193984444
C        -6.31229977060106       1.82128780145599      -0.65074679838675
Si       -6.31120563911893      -1.82115806362960      -7.82598111127379
Si       -6.31279232392129       1.82170369014903      -2.60939432950012
C        -4.73347580169687       2.73287352831225      -8.48335743942570
C        -4.73494812147857       2.73372357253454      -3.26561384799294
Si       -4.73300926651485       2.73260417409932     -10.43081206290491
Si       -4.73558160467903       2.73408931423086      -5.21573113795057
C        -4.73598959603640       0.91397605090153      -5.86793332892498
C        -4.73343138896415       4.55596805691517      -0.65074679838675
Si       -4.73453786813451       0.91205098884690      -7.82706361805265
Si       -4.73403783579759       4.55618667625668      -2.60939432950012
C        -3.15546522449667       5.46476950540838      -8.48206806281686
C        -3.15649199453123       5.46609047858156      -3.26691737855588
Si       -3.15537891336393       5.46515189806357     -10.42966426395694
Si       -3.15610643212109       5.46640772966356      -5.21631858487319
C        -3.15952127654953       3.64449927677554      -5.86793332892498
C        -3.15195575058159       7.28801923715915      -0.64830177041475
Si       -3.15712825995541       3.64420457456044      -7.82706361805265
Si       -3.15564975702299       7.28588650154582      -2.60779750357683
C        -1.57577250484946       8.19802905837479      -8.47962874717660
C        -1.57880608465404       8.19627762025801      -3.26449663674911
Si       -1.57593756226575       8.19793376243105     -10.42792858256803
Si       -1.57875974824243       8.19630437259773      -5.21395698711497
C        -1.57796954370467       6.37508194263625      -5.86765193984444
C        -1.57580686849731      10.01759425794902      -0.64957151935929
Si       -1.57843367214939       6.37624344379938      -7.82598111127379
Si       -1.57533317128351      10.01732076873511      -2.60835699383404
C        -0.00000000000000      10.92734709794412      -8.47962874717660
C        -0.00000000000000      10.93084997417770      -3.26449663674911
Si       -0.00000000000000      10.92753768983160     -10.42792858256803
Si       -0.00000000000000      10.93079646949827      -5.21395698711497
C         0.00000000000000       9.10780173823125      -5.86210078000849
C        -0.00000000000000      12.74736674037537      -0.64830177041475
Si        0.00000000000000       9.10780173823125      -7.82106627737746
Si       -0.00000000000000      12.75163221160206      -2.60779750357683
C        -4.73410291463912      -2.73323559213832      -8.48079634602149
C        -4.73363968606034      -2.73296814699367      -3.26591428243594
Si       -4.73403939266043      -2.73319891770683     -10.42846393189409
Si       -4.73399025533152      -2.73317054825676      -5.21682053388512
C        -4.73199814167811      -4.55410268256456      -5.86765193984444
C        -4.75074489001553      -0.91490672909947      -0.64984548293882
Si       -4.73277196696954      -4.55508538016985      -7.82598111127379
Si       -4.74119559575816      -0.91231362807475      -2.61049408419655
C        -3.15622440638921       0.00044369161434      -8.48024556459195
C        -3.16514291883526       0.00250783529362      -3.27146604532653
Si       -3.15652171196683       0.00060973337521     -10.42856306802094
Si       -3.16174754122117       0.00071458242189      -5.22350609406043
C        -3.15574862128264      -1.82197231599235      -5.86896428116584
C        -3.16073903069609       1.82485353021053      -0.65208634472337
Si       -3.15674570045300      -1.82254797991976      -7.82799457820946
Si       -3.16014667394708       1.82451153288203      -2.61331923008441
C        -1.57849645140408       2.73314867017034      -8.48024556459195
C        -1.58474330849042       2.73984025667294      -3.27146604532653
Si       -1.57878890057591       2.73332312347281     -10.42856306802094
Si       -1.58149261714105       2.73779639983957      -5.22350609406043
C        -1.58016870279287       0.91231082592248      -5.86315584941057
C        -1.58303997551432       4.57171912620229      -0.64984548293882
Si       -1.57862707342359       0.91142076579113      -7.82521182691831
Si       -1.58051101974763       4.56215264427482      -2.61049408419655
C         0.00000000000000       5.46647118427658      -8.48079634602149
C         0.00000000000000       5.46593629398728      -3.26591428243594
Si       -0.00000000000000       5.46639783541360     -10.42846393189409
Si       -0.00000000000000       5.46634109651346      -5.21682053388512
C         0.00000000000000       3.64394463198465      -5.86896428116584
C         0.00000000000001       7.28821669879567      -0.64957151935929
Si        0.00000000000000       3.64509595983947      -7.82799457820946
Si       -0.00000000000000       7.28876367722347      -2.60835699383404
C         1.57577250484945       8.19802905837481      -8.47962874717660
C         1.57880608465403       8.19627762025803      -3.26449663674911
Si        1.57593756226575       8.19793376243108     -10.42792858256803
Si        1.57875974824243       8.19630437259774      -5.21395698711497
C         1.57796954370468       6.37508194263628      -5.86765193984444
C         1.57580686849731      10.01759425794902      -0.64957151935929
Si        1.57843367214939       6.37624344379938      -7.82598111127379
Si        1.57533317128351      10.01732076873515      -2.60835699383404
C        -3.15489660526186      -5.46509779787671      -8.48206806281686
C        -3.15552721657027      -5.46664749339709      -3.26691737855588
Si       -3.15527092258183      -5.46521424657072     -10.42966426395694
Si       -3.15599474527172      -5.46647221209615      -5.21631858487319
C        -3.15299273107959      -7.28742053618952      -5.86481958703329
C        -3.16770491450121      -3.65681239710286      -0.64984548293882
Si       -3.15552015660159      -7.28596132638403      -7.82429779530304
Si       -3.16068457601054      -3.64983901620014      -2.61049408419655
C        -1.57772795498513      -2.73359236178470      -8.48024556459195
C        -1.58039961034483      -2.74234809196659      -3.27146604532653
Si       -1.57773281139093      -2.73393285684806     -10.42856306802094
Si       -1.58025492408011      -2.73851098226149      -5.22350609406043
C        -1.57646831948687      -4.55847532767713      -5.86793332892498
C        -1.64939436154945      -0.95227827864044      -0.67372070601576
Si       -1.57740960817911      -4.55625556340739      -7.82706361805265
Si       -1.60147474705895      -0.92461187631489      -2.64530935909287
C         0.00000000000000      -0.00000000000000      -8.47592736381564
C         0.00000000000000      -0.00000000000000      -3.25046794239602
Si        0.00000000000000      -0.00000000000000     -10.42527194203552
Si        0.00000000000000      -0.00000000000000      -5.22113803342176
C        -0.00000000000000      -1.82462165184498      -5.86315584941057
C         0.00000000000000       1.90455655728087      -0.67372070601576
Si        0.00000000000000      -1.82284153158229      -7.82521182691831
Si        0.00000000000000       1.84922375262975      -2.64530935909287
C         1.57849645140408       2.73314867017036      -8.48024556459195
C         1.58474330849042       2.73984025667296      -3.27146604532653
Si        1.57878890057591       2.73332312347283     -10.42856306802094
Si        1.58149261714105       2.73779639983958      -5.22350609406043
C         1.58016870279287       0.91231082592250      -5.86315584941057
C         1.58303997551432       4.57171912620230      -0.64984548293882
Si        1.57862707342359       0.91142076579115      -7.82521182691831
Si        1.58051101974763       4.56215264427485      -2.61049408419655
C         3.15546522449667       5.46476950540843      -8.48206806281686
C         3.15649199453123       5.46609047858161      -3.26691737855588
Si        3.15537891336393       5.46515189806362     -10.42966426395694
Si        3.15610643212108       5.46640772966360      -5.21631858487319
C         3.15952127654952       3.64449927677557      -5.86793332892498
C         3.15195575058159       7.28801923715918      -0.64830177041475
Si        3.15712825995540       3.64420457456047      -7.82706361805265
Si        3.15564975702299       7.28588650154587      -2.60779750357683
C        -1.57849038235881      -8.19645989106316      -8.48070619857286
C        -1.57529106993618      -8.19830701495159      -3.26415327070079
Si       -1.57883935746277      -8.19625841019295     -10.42856535870962
Si       -1.57577761141757      -8.19802611009633      -5.21384963510316
C        -1.57693695989597     -10.01824671652226      -5.86662337006772
C        -1.57886838163691      -6.37725585837124      -0.65074679838675
Si       -1.57660396580620     -10.01805446229490      -7.82571417967473
Si       -1.57875448812370      -6.37789036640579      -2.60939432950012
C        -0.00000000000000      -5.46574705662455      -8.48335743942570
C         0.00000000000000      -5.46744714506913      -3.26561384799294
Si       -0.00000000000000      -5.46520834819870     -10.43081206290491
Si        0.00000000000000      -5.46817862846176      -5.21573113795057
C         0.00000000000000      -7.28691178164921      -5.86662337006772
C         0.00000000000000      -3.64970706042110      -0.65208634472337
Si        0.00000000000000      -7.28729629010394      -7.82571417967473
Si        0.00000000000000      -3.64902306576410      -2.61331923008441
C         1.57772795498513      -2.73359236178468      -8.48024556459195
C         1.58039961034483      -2.74234809196658      -3.27146604532653
Si        1.57773281139093      -2.73393285684804     -10.42856306802094
Si        1.58025492408012      -2.73851098226147      -5.22350609406043
C         1.57646831948687      -4.55847532767710      -5.86793332892498
C         1.64939436154945      -0.95227827864042      -0.67372070601576
Si        1.57740960817911      -4.55625556340737      -7.82706361805265
Si        1.60147474705895      -0.92461187631487      -2.64530935909287
C         3.15622440638921       0.00044369161437      -8.48024556459195
C         3.16514291883526       0.00250783529366      -3.27146604532653
Si        3.15652171196683       0.00060973337525     -10.42856306802094
Si        3.16174754122117       0.00071458242193      -5.22350609406043
C         3.15574862128264      -1.82197231599231      -5.86896428116584
C         3.16073903069610       1.82485353021057      -0.65208634472337
Si        3.15674570045300      -1.82254797991971      -7.82799457820946
Si        3.16014667394708       1.82451153288207      -2.61331923008441
C         4.73347580169687       2.73287352831230      -8.48335743942570
C         4.73494812147856       2.73372357253460      -3.26561384799294
Si        4.73300926651485       2.73260417409937     -10.43081206290491
Si        4.73558160467903       2.73408931423091      -5.21573113795057
C         4.73598959603640       0.91397605090159      -5.86793332892498
C         4.73343138896415       4.55596805691524      -0.65074679838675
Si        4.73453786813451       0.91205098884695      -7.82706361805265
Si        4.73403783579760       4.55618667625675      -2.60939432950012
C         0.00000000000000     -10.93048543256743      -8.48070619857286
C        -0.00000000000001     -10.92679118479057      -3.26415327070079
Si       -0.00000000000000     -10.93088839430784     -10.42856535870962
Si        0.00000000000001     -10.92735299450106      -5.21384963510316
C         0.00000000000001     -12.74856414231473      -5.86481958703329
C        -0.00000000000000      -9.10780173823125      -0.64515751740460
Si       -0.00000000000001     -12.75148256192569      -7.82429779530304
Si       -0.00000000000000      -9.10780173823125      -2.60421212233958
C         1.57849038235882      -8.19645989106315      -8.48070619857286
C         1.57529106993619      -8.19830701495158      -3.26415327070079
Si        1.57883935746276      -8.19625841019294     -10.42856535870962
Si        1.57577761141757      -8.19802611009631      -5.21384963510316
C         1.57693695989597     -10.01824671652226      -5.86662337006772
C         1.57886838163691      -6.37725585837122      -0.65074679838675
Si        1.57660396580620     -10.01805446229488      -7.82571417967473
Si        1.57875448812369      -6.37789036640577      -2.60939432950012
C         3.15489660526186      -5.46509779787668      -8.48206806281686
C         3.15552721657027      -5.46664749339704      -3.26691737855588
Si        3.15527092258184      -5.46521424657068     -10.42966426395694
Si        3.15599474527173      -5.46647221209611      -5.21631858487319
C         3.15299273107960      -7.28742053618948      -5.86481958703329
C         3.16770491450121      -3.65681239710281      -0.64984548293882
Si        3.15552015660160      -7.28596132638399      -7.82429779530304
Si        3.16068457601054      -3.64983901620010      -2.61049408419655
C         4.73410291463912      -2.73323559213826      -8.48079634602149
C         4.73363968606034      -2.73296814699362      -3.26591428243594
Si        4.73403939266043      -2.73319891770677     -10.42846393189409
Si        4.73399025533153      -2.73317054825669      -5.21682053388512
C         4.73199814167811      -4.55410268256449      -5.86765193984444
C         4.75074489001553      -0.91490672909941      -0.64984548293882
Si        4.73277196696954      -4.55508538016979      -7.82598111127379
Si        4.74119559575817      -0.91231362807470      -2.61049408419655
VEC1       7.88758767794031     -13.66170260734685      -0.00000000000000
VEC2       7.88758767794032      13.66170260734685      -0.00000000000000
VEC3      -0.00000000000000       0.00000000000000      20.86865138586899
