216
C108Si107Ta optimized with Band in AMS.
Si        3.15253441392072       0.01934045520290       7.16880163966989
Si        3.14892090267110       0.01043240496640      12.35566471758951
C         3.15552274992753       0.01287915963270       5.22522201991980
C         3.14863218970988       0.00959445916244      10.41304745723492
Si        3.14945488509486      -1.81873736683742       9.75922629378520
Si        3.14996506418694       1.85636592295470      14.95781596372533
C         3.14904908055609      -1.81049295664047       7.80472425665975
C         3.14918595619134       1.83818499214928      13.00688470093110
Si       -3.14963295839604      -0.01567019658254     -13.65084457851374
Si       -3.14870132008137      -0.02069931635052      -8.45632854937376
C        -3.15008243920437      -0.02557354002177     -15.59220721314522
C        -3.14901236847623      -0.02214942168467     -10.39729593310305
Si       -3.14898037909779      -1.85049364391127     -11.05407980941270
Si       -3.14865181549942       1.82591806386361      -5.85341194873942
C        -3.14930038098704      -1.84332340332243     -13.00493982787492
C        -3.14872645596889       1.80723316002521      -7.80398361419062
Si       -3.15206783458883       0.00629717275641      -3.26603231827492
Si       -3.16674507732425      -0.00378603388806       1.94737322186426
C        -3.15028563022750      -0.00269897703598      -5.20453219717039
C        -3.14790196501250      -0.00209876471787       0.00260068114684
Si       -3.14866442568144      -1.83063031188529      -0.65795005685908
Si       -3.14714251314533       1.83691101693260       4.56799413815993
C        -3.14799389875095      -1.81963980918711      -2.61018861001552
C        -3.14557052192656       1.82065547640871       2.60831383165743
Si       -3.15135635421747       0.01900257363799       7.16826829813964
Si       -3.14650001575796       0.01012756119716      12.35515724694080
C        -3.15479130429420       0.01253664990682       5.22469298281422
C        -3.14689765319975       0.00925764018066      10.41253843929622
Si       -3.14796907135898      -1.81906758969144       9.75867976141773
Si       -3.14676717617012       1.85595247997322      14.95729373094558
C        -3.14812987186711      -1.81081305054569       7.80417999489783
C        -3.14650327556668       1.83787671275892      13.00632800320626
Si       -1.57514281570030       2.73406101278284     -13.64560879438243
Si       -1.57452862408272       2.72924241084848      -8.45120844043286
C        -1.57522433257589       2.72431229757712     -15.58648571571117
C        -1.57489765430439       2.72751155413434     -10.39228061473540
Si       -1.57487920020739       0.89919297735238     -11.04909490747287
Si       -1.57387799076509       4.57666078189044      -5.85015536210487
C        -1.57523875406587       0.90627711402100     -13.00012373824936
C        -1.57422016183606       4.55752048070803      -7.80024722501070
Si       -1.57600732215407       2.76225369114852      -3.26164735560636
Si       -1.59447766910090       2.77507737644712       1.94808612965193
C        -1.57463179581606       2.75045814409459      -5.20001532191951
C        -1.57795970145934       2.75267046762247       0.00355424900642
Si       -1.59229467687263       0.93323196563971      -0.68216592690537
Si       -1.57493923308841       4.58701969275269       4.56998711422347
C        -1.58292988781682       0.93556050479601      -2.62514171685649
C        -1.57532418862672       4.57644701004540       2.61159208710143
Si       -1.57627818664109       2.76942604680410       7.17213379064563
Si       -1.57237484870434       2.75962236554698      12.36021786485692
C        -1.57907904658903       2.76374755131243       5.22721771088768
C        -1.57263423172985       2.75878639210455      10.41770108348609
Si       -1.57256179800147       0.93082668249008       9.76333495894237
Si       -1.57263686927401       4.60540719316807      14.96193699602996
C        -1.57342273771002       0.93957178388492       7.80734501641410
C        -1.57271285235162       4.58753946294844      13.01058722005760
Si       -0.00079593462633       5.48369663640839     -13.64073228188567
Si       -0.00047718296165       5.47886438001292      -8.44795837332981
C        -0.00095123199792       5.47345537490782     -15.58168508209227
C        -0.00066514166234       5.47728215652188     -10.38838276509481
Si       -0.00076094833456       3.64878261497608     -11.04427900938832
Si       -0.00016547864429       7.32417482599136      -5.84597941958052
C        -0.00095162373818       3.65591466185814     -12.99496856584855
C        -0.00030938325531       7.30613913991458      -7.79573661846990
Si       -0.00007704588137       5.50720091271739      -3.24912087252183
Si        0.00037735535795       5.49570996389880       1.96035414536119
C        -0.00030454356778       5.49810978074057      -5.19106521974180
C         0.00011696984047       5.49825764971489       0.01601706152750
Si       -0.00001432384758       3.67228994605566      -0.64971524779499
Si        0.00075109356981       7.33809852270098       4.57516787201635
C        -0.00023413249555       3.67878691402140      -2.60183427589092
C         0.00055943068788       7.32315446365512       2.61623183272709
Si        0.00085901467653       5.51709372903629       7.16861267346627
Si        0.00143011618506       5.50936464185332      12.36474955064210
C         0.00062670033543       5.50926668555471       5.21901800904006
C         0.00114224787025       5.50877116535159      10.42275118587756
Si        0.00101273421535       3.68148795347070       9.76818019678395
Si        0.00210085243450       7.35386044650446      14.96623759442748
C         0.00073062741991       3.69004224724343       7.81341763537604
C         0.00158454477543       7.33735941940490      13.01496157352912
Si       -1.57522280761078      -2.76516545284997     -13.65494782090832
Si       -1.57483511692575      -2.77006324061607      -8.46087173598709
C        -1.57551330441322      -2.77463619749287     -15.59576671331504
C        -1.57496372123814      -2.77171067478225     -10.40189863194138
Si       -1.57522115408803      -4.59999444278191     -11.05831576614843
Si       -1.57442148785521      -0.92355539582597      -5.85788752074277
C        -1.57539482084779      -4.59278939751642     -13.00922608539389
C        -1.57454459614108      -0.94224556430243      -7.80859950666082
Si       -1.57629630738929      -2.74281821213339      -3.26830771448697
Si       -1.58128602409127      -2.78132704501885       1.94260137526022
C        -1.57560308527670      -2.75115227787307      -5.20760855726930
C        -1.57297544389719      -2.75048657717273      -0.00252622248169
Si       -1.57149865312872      -4.57756020265149      -0.66754533058675
Si       -1.59881403414630      -0.93038680539191       4.59297837301279
C        -1.57348026589978      -4.56841825175539      -2.61796305333887
C        -1.65738080438533      -0.99427364307813       2.65523092758348
Si       -1.57389115237281      -2.73751029395294       7.16479777722498
Si       -1.57294943562378      -2.73924327486401      12.35047309996780
C        -1.57442787812153      -2.75162150284986       5.22294221306681
C        -1.57322857002224      -2.74012416886394      10.40773699198699
Si       -1.57257309500477      -4.56927451736991       9.75732353739249
Si       -1.57245416255362      -0.89364588007885      14.95244063198142
C        -1.57186953289629      -4.56201837787121       7.80531914066485
C        -1.57261765759820      -0.91170905753960      13.00128128421546
Si       -0.00101886520609      -0.01559549052792     -13.65019544996869
Si       -0.00067691246944      -0.02021990463085      -8.45588368119421
C        -0.00104286702970      -0.02495891825814     -15.59105911340638
C        -0.00084884947896      -0.02194355915075     -10.39703891829645
Si       -0.00102766555859      -1.85023515772872     -11.05355733890237
Si       -0.00038839736250       1.82675112416505      -5.85317863581789
C        -0.00122621465986      -1.84310449364193     -13.00446479867102
C        -0.00057586059537       1.80750024702450      -7.80376165757043
Si       -0.00039637656434       0.00992157566833      -3.26107881384583
Ta        0.00015478353202       0.01552679114022       1.98323810430814
C        -0.00047832675075      -0.00074720687560      -5.20137164611914
C        -0.00017653682208       0.01292979776861      -0.08729143514261
Si       -0.00025945631397      -1.84054739186067      -0.67593270791058
Si        0.00050752964086       1.86495685321283       4.59060154413572
C        -0.00053108148927      -1.82361114350968      -2.62229273730543
C         0.00030135341824       1.95455033800112       2.64385239893441
Si        0.00060268400639       0.01776683079435       7.16080694768447
Si        0.00119089452379       0.01038312338352      12.35539983390260
C         0.00042199641906       0.00814259971595       5.19598233645666
C         0.00094665643033       0.00956379806345      10.41258956397319
Si        0.00072799608111      -1.81780362092458       9.75896808900852
Si        0.00161157008966       1.85597954117233      14.95760134167201
C         0.00043375237352      -1.81024637252361       7.80311255243187
C         0.00131599602582       1.83788620751519      13.00644633222329
Si        1.57329313881313       2.73420823110781     -13.64525563154643
Si        1.57338027776866       2.72936008786446      -8.45098920444276
C         1.57307691208141       2.72441658100233     -15.58611310410544
C         1.57338644400050       2.72762848612237     -10.39209932640220
Si        1.57308553318627       0.89936469455924     -11.04885074965560
Si        1.57333158716543       4.57680002271626      -5.84984387023525
C         1.57311663242417       0.90644329422717     -12.99977977532460
C         1.57331229813683       4.55766798587836      -7.80000365769034
Si        1.57554215588488       2.76241135144250      -3.26133097456472
Si        1.59504995088521       2.77525972275045       1.94833736306287
C         1.57384574864470       2.75056351629309      -5.19967173109496
C         1.57801989830751       2.75278999600883       0.00368693309389
Si        1.59197740969165       0.93335173856556      -0.68188286009070
Si        1.57616587776609       4.58716669149208       4.57024562787758
C         1.58213277420811       0.93570044082768      -2.62483010841803
C         1.57611051778977       4.57663015548450       2.61186067028563
Si        1.57773908712036       2.76958012981856       7.17242543786843
Si        1.57497873426233       2.75977479179757      12.36039754011810
C         1.58012174711933       2.76389147998710       5.22750556463030
C         1.57471222960709       2.75892415375451      10.41780308092182
Si        1.57432103277527       0.93100292435705       9.76354479593082
Si        1.57612589450136       4.60553681204459      14.96227096533148
C         1.57459710389150       0.93975950266398       7.80762620226349
C         1.57561722632723       4.58769666546713      13.01088234687634
Si       -0.00132782642251      -5.51473258084775     -13.65952938915306
Si       -0.00095024340359      -5.51986446343185      -8.46526419741896
C        -0.00148737697022      -5.52401400140235     -15.60055789447540
C        -0.00117303507869      -5.52135238363299     -10.40627802295937
Si       -0.00126123547387      -7.34959850491927     -11.06294800944531
Si       -0.00064467802420      -3.67344700116811      -5.86178189016858
C        -0.00138787908250      -7.34232582202321     -13.01375822433127
C        -0.00079634321099      -3.69203263721594      -7.81271774881467
Si       -0.00062633317898      -5.49158148002639      -3.27000888689240
Si       -0.00012827162890      -5.50716079909814       1.94034248219965
C        -0.00082005678627      -5.50117572073375      -5.21042957025878
C        -0.00042703598727      -5.50184094253724      -0.00561941132276
Si       -0.00054574682401      -7.32826833529781      -0.66988109887626
Si        0.00025725902474      -3.66448451273674       4.55944288651339
C        -0.00076996794700      -7.31973809181292      -2.62095489003970
C         0.00002635851776      -3.68409250435396       2.59949729524975
Si        0.00030414089737      -5.48262921149704       7.15390994271385
Si        0.00095522736574      -5.48902514938532      12.34785698849705
C         0.00007350000015      -5.49135655964678       5.20611432425449
C         0.00057941722890      -5.49003611676562      10.40709999787169
Si        0.00047037701453      -7.31678242581065       9.75269169894104
Si        0.00133961503168      -3.64268087786184      14.94828203353313
C         0.00019685933028      -7.30745567506097       7.80082711921053
C         0.00109478139041      -3.66094836673886      12.99722307094745
Si        1.57285239571426      -2.76498551976592     -13.65473629891828
Si        1.57321079146183      -2.76989652544855      -8.46054346283464
C         1.57288482691839      -2.77440939347710     -15.59567590490390
C         1.57294165757933      -2.77152060732838     -10.40155653783680
Si        1.57289476008231      -4.59983485975095     -11.05804370685468
Si        1.57339376612208      -0.92341421235079      -5.85765125894859
C         1.57271782418605      -4.59264206580688     -13.00900592150301
C         1.57314542211641      -0.94212197165513      -7.80827135164972
Si        1.57528637539528      -2.74266083036192      -3.26811100646707
Si        1.58128521130445      -2.78114937597635       1.94293223869921
C         1.57429249678742      -2.75096710844116      -5.20748008197130
C         1.57247625941562      -2.75027226251609      -0.00212493217467
Si        1.57071918994420      -4.57739862052285      -0.66720997562941
Si        1.59960024710557      -0.93028608567817       4.59331530222078
C         1.57220211259537      -4.56826287248890      -2.61768743944545
C         1.65761781420274      -0.99413517480725       2.65571493759266
Si        1.57478867011774      -2.73734769403859       7.16505088784332
Si        1.57508464731213      -2.73909446124936      12.35080434751640
C         1.57489678623801      -2.75146110091982       5.22321593813457
C         1.57474727173952      -2.73992511983850      10.40813465032675
Si        1.57377017753607      -4.56913504570943       9.75766324971332
Si        1.57563296928550      -0.89345010288443      14.95263659287526
C         1.57249381300491      -4.56187473702684       7.80559787212168
C         1.57508862927901      -0.91153515173677      13.00154640735473
Si        3.14761764888724      -0.01536806011434     -13.65023001716859
Si        3.14727787217604      -0.02042268171755      -8.45577897557778
C         3.14799021217528      -0.02520353101826     -15.59175613239720
C         3.14719190402852      -0.02185203927746     -10.39680979444826
Si        3.14692396988870      -1.85020561545388     -11.05355125911657
Si        3.14785528836913       1.82618633741831      -5.85286534590137
C         3.14691920266962      -1.84305682619170     -13.00432943473808
C         3.14760039714379       1.80752410733334      -7.80341161983262
Si        3.15134251977296       0.00661428086742      -3.26552789457951
Si        3.16700922684954      -0.00346565637708       1.94794817860081
C         3.14914238928138      -0.00240721291679      -5.20406100090543
C         3.14757008727864      -0.00178034279454       0.00310142544299
Si        3.14810436892761      -1.83031606319924      -0.65737658593352
Si        3.14814515747936       1.83721096075878       4.56852542646982
C         3.14700870699954      -1.81932974686129      -2.60962030279270
C         3.14616614252670       1.82100347904287       2.60892679792670
VEC1       4.72174402772096      -8.24877275579089      -0.01376810016945
VEC2       4.72252781726873       8.24922527689728       0.01458681882989
VEC3       0.00267678471124       0.05352375051280      31.19855145704240
