400
C200Si199Ta optimized with Band in AMS.
C         6.31330732419217       0.00108845599918       1.95447994926641
C         6.31070707269423      -0.00092684077489       7.17310317141796
Si        6.32278407474191       0.00167272164723       0.00668524646160
Si        6.31227984429083      -0.00071672317885       5.22642902652452
C         6.31036353804306      -1.82127083827970       4.56903628937632
C         6.31035779157368       1.82122656873997       9.78702178370297
Si        6.31260172445463      -1.82128578663436       2.61224761179577
Si        6.31161132600018       1.82107116577443       7.83105041792286
C        -6.31330732419217       0.00108845599915       1.95447994926641
C        -6.31070707269422      -0.00092684077493       7.17310317141796
Si       -6.32278407474191       0.00167272164721       0.00668524646160
Si       -6.31227984429083      -0.00071672317888       5.22642902652452
C        -6.31036353804307      -1.82127083827974       4.56903628937632
C        -6.31035779157367       1.82122656873994       9.78702178370297
Si       -6.31260172445463      -1.82128578663439       2.61224761179577
Si       -6.31161132600017       1.82107116577442       7.83105041792286
C        -4.73431281276060       2.73335677687522       1.95359615858742
C        -4.73403196330401       2.73319462836585       7.17424478172269
Si       -4.73956892948232       2.73639139727940       0.00466297030101
Si       -4.73503113872223       2.73377150256254       5.22782158946340
C        -4.73555660321497       0.91273463231214       4.57429684602500
C        -4.73240737036281       4.55431687010189       9.78702178370297
Si       -4.73991430472935       0.91293795426396       2.61743253343585
Si       -4.73289955466007       4.55548016424251       7.83105041792286
C        -3.15759629264225       5.46694029664919       1.95447994926641
C        -3.15455086869078       5.46569606118280       7.17310317141796
Si       -3.16284065681090       5.47485527054658       0.00668524646160
Si       -3.15551922166503       5.46695306254176       5.22642902652452
C        -3.15822968010365       3.64474500328723       4.57429684602500
C        -3.15338914779338       7.28790383920345       9.79060877738732
Si       -3.16058461283626       3.64841722252487       2.61743253343585
Si       -3.15575234277554       7.28653944794437       7.83317241940240
C        -1.57597301757008       8.19862546661193       1.95463151452893
C        -1.57867446722798       8.19706578392474       7.17292862652073
Si       -1.57574153956387       8.19875911050115       0.00605371000181
Si       -1.57882247939039       8.19698032906294       5.22550555326475
C        -1.57791495589950       6.37557055020020       4.56903628937632
C        -1.57756689988711      10.01932258685609       9.78839775307863
Si       -1.57902110345042       6.37751635066835       2.61224761179577
Si       -1.57685243396490      10.01891008976355       7.83113544208008
C         0.00000000000001      10.92829080440095       1.95463151452893
C         0.00000000000001      10.93141016977536       7.17292862652073
Si        0.00000000000001      10.92802351662259       0.00605371000181
Si        0.00000000000001      10.93158107949898       5.22550555326475
C         0.00000000000001       9.10851391254163       4.57361450782394
C         0.00000000000002      12.74973405921793       9.79060877738732
Si        0.00000000000001       9.10851391254163       2.61577893350460
Si        0.00000000000002      12.75246284173611       7.83317241940240
C        -4.73467752895707      -2.73356734586945       1.95415863231125
C        -4.73348993831130      -2.73288169009043       7.17206913897750
Si       -4.74001676801620      -2.73664995697750       0.00585645286896
Si       -4.73392483982371      -2.73313278059569       5.22487009641132
C        -4.73244858214355      -4.55429971192050       4.56903628937632
C        -4.73406445173777      -0.91284351198285       9.79065803841604
Si       -4.73358062100421      -4.55623056403400       2.61224761179577
Si       -4.73444480652612      -0.91205110298986       7.83419493109303
C        -3.16114847705163       0.00057582288544       1.95864418109398
C        -3.15751924731709      -0.00114622330457       7.17840043298447
Si       -3.19809249233205       0.00222476259051       0.00978972537254
Si       -3.16127963926799      -0.00133434906058       5.23407741318576
C        -3.15469095399782      -1.82136167150073       4.57197679896101
C        -3.15540859855321       1.82177600377795       9.78821287105568
Si       -3.15901200042348      -1.82385642881777       2.61581312150149
Si       -3.15638972772780       1.82234245897101       7.83286725297148
C        -1.58107291577269       2.73734697481847       1.95864418109398
C        -1.57776696515839       2.73506499276720       7.17840043298447
Si       -1.60097294708680       2.76851696071658       0.00978972537254
Si       -1.57948423945002       2.73841565060287       5.23407741318576
C        -1.58644538678390       0.91593467111432       4.59184593362447
C        -1.57648655481194       4.55624183434919       9.79065803841604
Si       -1.59592654737348       0.92140862173295       2.64149173203629
Si       -1.57736297852423       4.55617502676185       7.83419493109303
C         0.00000000000001       5.46713469173888       1.95415863231125
C         0.00000000000001       5.46576338018084       7.17206913897750
Si        0.00000000000001       5.47329991395498       0.00585645286896
Si        0.00000000000001       5.46626556119137       5.22487009641132
C         0.00000000000000       3.64272334300144       4.57197679896101
C         0.00000000000001       7.28689656391267       9.78839775307863
Si        0.00000000000001       3.64771285763552       2.61581312150149
Si        0.00000000000001       7.28772155809771       7.83113544208008
C         1.57597301757010       8.19862546661194       1.95463151452893
C         1.57867446722800       8.19706578392475       7.17292862652073
Si        1.57574153956388       8.19875911050115       0.00605371000181
Si        1.57882247939042       8.19698032906295       5.22550555326475
C         1.57791495589952       6.37557055020022       4.56903628937632
C         1.57756689988713      10.01932258685609       9.78839775307863
Si        1.57902110345044       6.37751635066836       2.61224761179577
Si        1.57685243396492      10.01891008976357       7.83113544208008
C        -3.15571103154992      -5.46802875264836       1.95447994926641
C        -3.15615620400346      -5.46476922040788       7.17310317141796
Si       -3.15994341793102      -5.47652799219382       0.00668524646160
Si       -3.15676062262580      -5.46623633936292       5.22642902652452
C        -3.15353727987514      -7.28781831510620       4.57428914539356
C        -3.15757789692583      -3.64339832236635       9.79065803841604
Si       -3.15505341686939      -7.28694297300444       2.61684384106542
Si       -3.15708182800189      -3.64412392377201       7.83419493109303
C        -1.58007556127893      -2.73792279770393       1.95864418109398
C        -1.57975228215871      -2.73391876946265       7.17840043298447
Si       -1.59711954524524      -2.77074172330711       0.00978972537254
Si       -1.58179539981797      -2.73708130154231       5.23407741318576
C        -1.57732692311132      -4.55747963559939       4.57429684602500
C        -1.57878684037968      -0.91151300728625       9.79352128866375
Si       -1.57932969189308      -4.56135517678886       2.61743253343585
Si       -1.57855779974098      -0.91138077061184       7.83685891252720
C        -0.00000000000000      -0.00000000000000       2.04501986114523
C        -0.00000000000000      -0.00000000000000       7.17998475930295
Ta       -0.00000000000000      -0.00000000000000      -0.03018669655191
Si       -0.00000000000000       0.00000000000001       5.23328837774441
C        -0.00000000000000      -1.83186934222865       4.59184593362447
C         0.00000000000000       1.82302601457250       9.79352128866375
Si       -0.00000000000000      -1.84281724346591       2.64149173203629
Si        0.00000000000000       1.82276154122368       7.83685891252720
C         1.58107291577270       2.73734697481848       1.95864418109398
C         1.57776696515839       2.73506499276721       7.17840043298447
Si        1.60097294708681       2.76851696071658       0.00978972537254
Si        1.57948423945003       2.73841565060288       5.23407741318576
C         1.58644538678390       0.91593467111433       4.59184593362447
C         1.57648655481194       4.55624183434919       9.79065803841604
Si        1.59592654737348       0.92140862173296       2.64149173203629
Si        1.57736297852424       4.55617502676186       7.83419493109303
C         3.15759629264226       5.46694029664921       1.95447994926641
C         3.15455086869078       5.46569606118281       7.17310317141796
Si        3.16284065681091       5.47485527054659       0.00668524646160
Si        3.15551922166504       5.46695306254178       5.22642902652452
C         3.15822968010366       3.64474500328725       4.57429684602500
C         3.15338914779340       7.28790383920347       9.79060877738732
Si        3.16058461283627       3.64841722252489       2.61743253343585
Si        3.15575234277555       7.28653944794437       7.83317241940240
C        -1.57849297346962      -8.19717056939501       1.95505466297051
C        -1.57598650985242      -8.19861767683912       7.17438173693858
Si       -1.57749123470720      -8.19774892353915       0.00642071264202
Si       -1.57605178247254      -8.19857999167432       5.22711879894814
C        -1.57747110894233     -10.01926728192831       4.57128902325231
C        -1.57795042121088      -6.37554343884186       9.78702178370297
Si       -1.57582969596581     -10.01831961170447       2.61364571720796
Si       -1.57871177134010      -6.37655133001697       7.83105041792286
C        -0.00000000000000      -5.46671355375045       1.95359615858742
C        -0.00000000000000      -5.46638925673173       7.17424478172269
Si       -0.00000000000001      -5.47278279455882       0.00466297030101
Si       -0.00000000000001      -5.46754300512510       5.22782158946340
C        -0.00000000000001      -7.28700717376821       4.57128902325231
C        -0.00000000000001      -3.64355200755592       9.78821287105568
Si       -0.00000000000000      -7.28890251421591       2.61364571720796
Si       -0.00000000000001      -3.64468491794203       7.83286725297148
C         1.58007556127893      -2.73792279770392       1.95864418109398
C         1.57975228215870      -2.73391876946264       7.17840043298447
Si        1.59711954524524      -2.77074172330710       0.00978972537254
Si        1.58179539981796      -2.73708130154230       5.23407741318576
C         1.57732692311130      -4.55747963559937       4.57429684602500
C         1.57878684037968      -0.91151300728624       9.79352128866375
Si        1.57932969189306      -4.56135517678885       2.61743253343585
Si        1.57855779974098      -0.91138077061184       7.83685891252720
C         3.16114847705164       0.00057582288546       1.95864418109398
C         3.15751924731709      -0.00114622330455       7.17840043298447
Si        3.19809249233205       0.00222476259053       0.00978972537254
Si        3.16127963926799      -0.00133434906056       5.23407741318576
C         3.15469095399782      -1.82136167150071       4.57197679896101
C         3.15540859855322       1.82177600377797       9.78821287105568
Si        3.15901200042348      -1.82385642881775       2.61581312150149
Si        3.15638972772780       1.82234245897101       7.83286725297148
C         4.73431281276060       2.73335677687524       1.95359615858742
C         4.73403196330401       2.73319462836588       7.17424478172269
Si        4.73956892948233       2.73639139727943       0.00466297030101
Si        4.73503113872224       2.73377150256257       5.22782158946340
C         4.73555660321497       0.91273463231215       4.57429684602500
C         4.73240737036282       4.55431687010191       9.78702178370297
Si        4.73991430472935       0.91293795426399       2.61743253343585
Si        4.73289955466008       4.55548016424253       7.83105041792286
C        -0.00000000000002     -10.93120059883483       1.95505466297051
C        -0.00000000000002     -10.92830638394664       7.17438173693858
Si       -0.00000000000001     -10.93004389054654       0.00642071264202
Si       -0.00000000000002     -10.92838175427623       5.22711879894814
C        -0.00000000000002     -12.74990510741248       4.57428914539356
C        -0.00000000000001      -9.10851391254163       9.79198563138604
Si       -0.00000000000002     -12.75165579161598       2.61684384106542
Si       -0.00000000000001      -9.10851391254163       7.83519695442278
C         1.57849297346961      -8.19717056939501       1.95505466297051
C         1.57598650985239      -8.19861767683911       7.17438173693858
Si        1.57749123470717      -8.19774892353913       0.00642071264202
Si        1.57605178247252      -8.19857999167432       5.22711879894814
C         1.57747110894231     -10.01926728192830       4.57128902325231
C         1.57795042121086      -6.37554343884186       9.78702178370297
Si        1.57582969596577     -10.01831961170447       2.61364571720796
Si        1.57871177134008      -6.37655133001693       7.83105041792286
C         3.15571103154990      -5.46802875264835       1.95447994926641
C         3.15615620400344      -5.46476922040786       7.17310317141796
Si        3.15994341793100      -5.47652799219379       0.00668524646160
Si        3.15676062262579      -5.46623633936290       5.22642902652452
C         3.15353727987512      -7.28781831510619       4.57428914539356
C         3.15757789692582      -3.64339832236633       9.79065803841604
Si        3.15505341686937      -7.28694297300443       2.61684384106542
Si        3.15708182800189      -3.64412392377200       7.83419493109303
C         4.73467752895706      -2.73356734586943       1.95415863231125
C         4.73348993831128      -2.73288169009041       7.17206913897750
Si        4.74001676801619      -2.73664995697749       0.00585645286896
Si        4.73392483982372      -2.73313278059567       5.22487009641132
C         4.73244858214354      -4.55429971192047       4.56903628937632
C         4.73406445173778      -0.91284351198283       9.79065803841604
Si        4.73358062100420      -4.55623056403397       2.61224761179577
Si        4.73444480652612      -0.91205110298984       7.83419493109303
C         6.31099221492571       0.00037790704366      -8.48458265085472
C         6.31304166140245       0.00057778896618      -3.26816328420233
Si        6.31116105290087      -0.00007640903663     -10.43155251839688
Si        6.31234935098157       0.00044530124791      -5.21595370467869
C         6.31048948599341      -1.82112261338692      -5.86914133269353
C         6.31282020827971       1.82177177025631      -0.65083350875616
Si        6.31156396395827      -1.82122731568926      -7.82634800226586
Si        6.31275747407768       1.82177687657118      -2.60895801748645
C        -6.31099221492571       0.00037790704362      -8.48458265085472
C        -6.31304166140246       0.00057778896613      -3.26816328420233
Si       -6.31116105290088      -0.00007640903667     -10.43155251839688
Si       -6.31234935098157       0.00044530124788      -5.21595370467869
C        -6.31048948599341      -1.82112261338694      -5.86914133269353
C        -6.31282020827971       1.82177177025628      -0.65083350875616
Si       -6.31156396395828      -1.82122731568929      -7.82634800226586
Si       -6.31275747407768       1.82177687657115      -2.60895801748645
C        -4.73407206340298       2.73321778016878      -8.48618493171535
C        -4.73525438947523       2.73390039644488      -3.26677911662208
Si       -4.73333192423669       2.73279046062190     -10.43287495303459
Si       -4.73563565562614       2.73412052055972      -5.21554671457080
C        -4.73672868239448       0.91424794039300      -5.87075375448998
C        -4.73411073707915       4.55617678476585      -0.65083350875616
Si       -4.73483629936319       0.91225330506768      -7.82770430224479
Si       -4.73408379217653       4.55611990219578      -2.60895801748645
C        -3.15582338456291       5.46529062768965      -8.48458265085472
C        -3.15702121062394       5.46696555944096      -3.26816328420233
Si       -3.15551435428361       5.46566400370543     -10.43155251839688
Si       -3.15656031768379       5.46643224488831      -5.21595370467869
C        -3.16012628293520       3.64500339959152      -5.87075375448998
C        -3.15273942955948       7.28827895420068      -0.64813347586932
Si       -3.15745268655651       3.64436186547536      -7.82770430224479
Si       -3.15642651313460       7.28615021550607      -2.60682448820600
C        -1.57594890266352       8.19863938935973      -8.48184533279046
C        -1.57895598960189       8.19690324690639      -3.26491493896429
Si       -1.57604361580478       8.19858470670212     -10.42985761446992
Si       -1.57914459586870       8.19679435502747      -5.21319423940853
C        -1.57810629639731       6.37560551187836      -5.86914133269353
C        -1.57546053805375      10.01810647828460      -0.64937706883460
Si       -1.57855286052607       6.37658838824292      -7.82634800226586
Si       -1.57595314289544      10.01839088382254      -2.60740997967520
C         0.00000000000002      10.92826295890541      -8.48184533279046
C         0.00000000000001      10.93173524381205      -3.26491493896429
Si        0.00000000000002      10.92837232422060     -10.42985761446992
Si        0.00000000000001      10.93195302756991      -5.21319423940853
C         0.00000000000001       9.10851391254163      -5.86337393301078
C         0.00000000000002      12.74898382922347      -0.64813347586932
Si        0.00000000000001       9.10851391254163      -7.82140844002805
Si        0.00000000000001      12.75324130661271      -2.60682448820600
C        -4.73455788756789      -2.73349827088120      -8.48299354296241
C        -4.73407596122178      -2.73322003057554      -3.26629851759292
Si       -4.73444702680145      -2.73343426538785     -10.42998471025713
Si       -4.73373976619086      -2.73302592828394      -5.21578323102009
C        -4.73238318959610      -4.55448289849146      -5.86914133269353
C        -4.75880162087820      -0.91386324850483      -0.64903452168360
Si       -4.73301110343218      -4.55536107255365      -7.82634800226586
Si       -4.74124741367499      -0.91136075785441      -2.60879307021396
C        -3.15631995595116       0.00058734021924      -8.48214676087208
C        -3.16719903568625       0.00265981801204      -3.27628063358199
Si       -3.15654618947898       0.00060481054063     -10.42995092898057
Si       -3.16227129683566       0.00095353699948      -5.22234931316326
C        -3.15616160073497      -1.82221074979030      -5.87112147980407
C        -3.15904744419769       1.82387689229033      -0.65347764306302
Si       -3.15686298112485      -1.82261569194720      -7.82800931355053
Si       -3.15841173795005       1.82350986711713      -2.61380655174848
C        -1.57866862952611       2.73315959421585      -8.48214676087208
C        -1.58590298781101       2.74154491473984      -3.27628063358199
Si       -1.57879687603215       2.73334678303744     -10.42995092898057
Si       -1.58196143568283       2.73813050821830      -5.22234931316326
C        -1.57969083581680       0.91203492929521      -5.86323251893961
C        -1.58797202164895       4.57817471950349      -0.64903452168360
Si       -1.57802375583429       0.91107244021855      -7.82387387496580
Si       -1.58136213852334       4.56172108479702      -2.60879307021396
C         0.00000000000001       5.46699654176237      -8.48299354296241
C         0.00000000000001       5.46644006115106      -3.26629851759292
Si        0.00000000000001       5.46686853077569     -10.42998471025713
Si        0.00000000000001       5.46605185656786      -5.21578323102009
C         0.00000000000000       3.64442149958059      -5.87112147980407
C         0.00000000000001       7.28932878105566      -0.64937706883460
Si        0.00000000000001       3.64523138389439      -7.82800931355053
Si        0.00000000000001       7.28875996997976      -2.60740997967520
C         1.57594890266355       8.19863938935973      -8.48184533279046
C         1.57895598960191       8.19690324690640      -3.26491493896429
Si        1.57604361580481       8.19858470670214     -10.42985761446992
Si        1.57914459586872       8.19679435502748      -5.21319423940853
C         1.57810629639733       6.37560551187837      -5.86914133269353
C         1.57546053805378      10.01810647828459      -0.64937706883460
Si        1.57855286052609       6.37658838824292      -7.82634800226586
Si        1.57595314289546      10.01839088382254      -2.60740997967520
C        -3.15516883036281      -5.46566853473331      -8.48458265085472
C        -3.15602045077852      -5.46754334840713      -3.26816328420233
Si       -3.15564669861727      -5.46558759466879     -10.43155251839688
Si       -3.15578903329778      -5.46687754613621      -5.21595370467869
C        -3.15321292451254      -7.28800558176212      -5.86676173440999
C        -3.17082959922925      -3.66431147099869      -0.64903452168360
Si       -3.15575076647915      -7.28654035801952      -7.82491884296363
Si       -3.15988527515165      -3.65036032694262      -2.60879307021396
C        -1.57765132642505      -2.73374693443511      -8.48214676087208
C        -1.58129604787525      -2.74420473275190      -3.27628063358199
Si       -1.57774931344682      -2.73395159357809     -10.42995092898057
Si       -1.58030986115282      -2.73908404521779      -5.22234931316326
C        -1.57660239945930      -4.55925133998455      -5.87075375448998
C        -1.68671507019233      -0.97382539982175      -0.69148848471985
Si       -1.57738361280666      -4.55661517054307      -7.82770430224479
Si       -1.60788879456504      -0.92831502836911      -2.63643115154693
C         0.00000000000000       0.00000000000000      -8.47800397276978
C         0.00000000000000       0.00000000000000      -3.24047072104658
Si        0.00000000000000       0.00000000000000     -10.42653170810427
Si        0.00000000000000      -0.00000000000000      -5.21149857527538
C        -0.00000000000000      -1.82406985859043      -5.86323251893961
C         0.00000000000000       1.94765079964348      -0.69148848471985
Si       -0.00000000000000      -1.82214488043711      -7.82387387496580
Si        0.00000000000000       1.85663005673821      -2.63643115154693
C         1.57866862952611       2.73315959421586      -8.48214676087208
C         1.58590298781101       2.74154491473985      -3.27628063358199
Si        1.57879687603216       2.73334678303744     -10.42995092898057
Si        1.58196143568284       2.73813050821830      -5.22234931316326
C         1.57969083581680       0.91203492929522      -5.86323251893961
C         1.58797202164896       4.57817471950350      -0.64903452168360
Si        1.57802375583429       0.91107244021856      -7.82387387496580
Si        1.58136213852335       4.56172108479703      -2.60879307021396
C         3.15582338456291       5.46529062768967      -8.48458265085472
C         3.15702121062395       5.46696555944098      -3.26816328420233
Si        3.15551435428362       5.46566400370544     -10.43155251839688
Si        3.15656031768380       5.46643224488832      -5.21595370467869
C         3.16012628293520       3.64500339959152      -5.87075375448998
C         3.15273942955951       7.28827895420071      -0.64813347586932
Si        3.15745268655653       3.64436186547538      -7.82770430224479
Si        3.15642651313462       7.28615021550609      -2.60682448820600
C        -1.57856829966104      -8.19712707979811      -8.48331326439080
C        -1.57542516571372      -8.19894176902870      -3.26497274911519
Si       -1.57903234589976      -8.19685916257728     -10.43072009487380
Si       -1.57587609483842      -8.19868142497717      -5.21364631334978
C        -1.57700818773289     -10.01900001424344      -5.86848260484014
C        -1.57870947120056      -6.37794855502215      -0.65083350875616
Si       -1.57679603294242     -10.01887752661807      -7.82642191477697
Si       -1.57867368190116      -6.37789677876695      -2.60895801748645
C        -0.00000000000000      -5.46643556033761      -8.48618493171535
C        -0.00000000000001      -5.46780079288977      -3.26677911662208
Si       -0.00000000000001      -5.46558092124384     -10.43287495303459
Si       -0.00000000000001      -5.46824104111949      -5.21554671457080
C        -0.00000000000001      -7.28754170913796      -5.86848260484014
C        -0.00000000000001      -3.64775378458067      -0.65347764306302
Si       -0.00000000000001      -7.28778668438874      -7.82642191477697
Si       -0.00000000000001      -3.64701973423428      -2.61380655174848
C         1.57765132642504      -2.73374693443510      -8.48214676087208
C         1.58129604787524      -2.74420473275189      -3.27628063358199
Si        1.57774931344682      -2.73395159357808     -10.42995092898057
Si        1.58030986115281      -2.73908404521778      -5.22234931316326
C         1.57660239945929      -4.55925133998453      -5.87075375448998
C         1.68671507019233      -0.97382539982173      -0.69148848471985
Si        1.57738361280665      -4.55661517054306      -7.82770430224479
Si        1.60788879456503      -0.92831502836910      -2.63643115154693
C         3.15631995595116       0.00058734021926      -8.48214676087208
C         3.16719903568626       0.00265981801206      -3.27628063358199
Si        3.15654618947898       0.00060481054065     -10.42995092898057
Si        3.16227129683565       0.00095353699950      -5.22234931316326
C         3.15616160073497      -1.82221074979029      -5.87112147980407
C         3.15904744419770       1.82387689229035      -0.65347764306302
Si        3.15686298112485      -1.82261569194719      -7.82800931355053
Si        3.15841173795006       1.82350986711716      -2.61380655174848
C         4.73407206340298       2.73321778016881      -8.48618493171535
C         4.73525438947524       2.73390039644490      -3.26677911662208
Si        4.73333192423671       2.73279046062192     -10.43287495303459
Si        4.73563565562613       2.73412052055976      -5.21554671457080
C         4.73672868239449       0.91424794039303      -5.87075375448998
C         4.73411073707915       4.55617678476586      -0.65083350875616
Si        4.73483629936319       0.91225330506771      -7.82770430224479
Si        4.73408379217654       4.55611990219581      -2.60895801748645
C        -0.00000000000001     -10.93128757802863      -8.48331326439080
C        -0.00000000000001     -10.92765819956747      -3.26497274911519
Si       -0.00000000000001     -10.93182341247029     -10.43072009487380
Si       -0.00000000000002     -10.92817888767053      -5.21364631334978
C        -0.00000000000002     -12.74953057410065      -5.86676173440999
C        -0.00000000000001      -9.10851391254163      -0.64536430267226
Si       -0.00000000000001     -12.75246102158583      -7.82491884296363
Si       -0.00000000000001      -9.10851391254163      -2.60391276064453
C         1.57856829966102      -8.19712707979810      -8.48331326439080
C         1.57542516571370      -8.19894176902868      -3.26497274911519
Si        1.57903234589974      -8.19685916257727     -10.43072009487380
Si        1.57587609483841      -8.19868142497717      -5.21364631334978
C         1.57700818773287     -10.01900001424344      -5.86848260484014
C         1.57870947120054      -6.37794855502215      -0.65083350875616
Si        1.57679603294240     -10.01887752661805      -7.82642191477697
Si        1.57867368190115      -6.37789677876695      -2.60895801748645
C         3.15516883036279      -5.46566853473331      -8.48458265085472
C         3.15602045077850      -5.46754334840711      -3.26816328420233
Si        3.15564669861726      -5.46558759466877     -10.43155251839688
Si        3.15578903329777      -5.46687754613620      -5.21595370467869
C         3.15321292451252      -7.28800558176209      -5.86676173440999
C         3.17082959922925      -3.66431147099867      -0.64903452168360
Si        3.15575076647914      -7.28654035801951      -7.82491884296363
Si        3.15988527515165      -3.65036032694261      -2.60879307021396
C         4.73455788756789      -2.73349827088117      -8.48299354296241
C         4.73407596122178      -2.73322003057552      -3.26629851759292
Si        4.73444702680144      -2.73343426538783     -10.42998471025713
Si        4.73373976619085      -2.73302592828392      -5.21578323102009
C         4.73238318959608      -4.55448289849143      -5.86914133269353
C         4.75880162087819      -0.91386324850481      -0.64903452168360
Si        4.73301110343218      -4.55536107255363      -7.82634800226586
Si        4.74124741367499      -0.91136075785440      -2.60879307021396
VEC1       7.88820443898502     -13.66277086881241       0.00000000000000
VEC2       7.88820443898503      13.66277086881241      -0.00000000000000
VEC3      -0.00000000000000      -0.00000000000000      20.87368376107690
